Version 4
SHEET 1 880 680
WIRE 96 -64 96 -160
WIRE 656 -64 656 -160
WIRE 656 -64 96 -64
SYMBOL 74HCT\\74hct04 144 -224 R0
SYMATTR InstName U1
SYMBOL 74HCT\\74hct04 256 -224 R0
SYMATTR InstName U2
SYMBOL 74HCT\\74hct04 368 -224 R0
SYMATTR InstName U3
SYMBOL 74HCT\\74hct04 480 -224 R0
SYMATTR InstName U4
SYMBOL 74HCT\\74hct04 592 -224 R0
SYMATTR InstName U5
TEXT 288 -248 Left 2 !.lib 74HCT.lib
TEXT 160 -48 Left 2 !.tran 0 0.0000001 0 100u
