Version 4
SHEET 1 880 680
WIRE 176 -64 0 -64
WIRE 240 16 176 16
WIRE 0 144 0 -64
WIRE 128 144 0 144
WIRE 240 144 240 16
WIRE 304 144 240 144
WIRE 0 240 0 144
WIRE 240 304 0 304
FLAG 240 304 0
SYMBOL res 160 -80 R0
SYMATTR InstName R1
SYMBOL cap -16 240 R0
SYMATTR InstName C1
SYMBOL 74HCT\\74hct14 176 96 R0
SYMATTR InstName U2
TEXT 544 -136 Left 2 !.lib 74hct.lib
TEXT -576 -120 Left 2 !.tran 0 0.01 0 1u
